page 3	Labour Riots in France.
page 3	Old Age Pensions.
page 3	The Paris Riots.
page 3	HONGKONG VOLUNTEER GORPS.
page 3	PROMENADE CONCERT.
page 3	CANTON DAY BY DAY.
page 3	THE LATE MR. FONG SHING-TING.
page 3	CHINESE GUNBOAT WRECKED.
page 3	CANTON-HANKOW RAILWAY.
page 3	SECOND CALL ON SHARES.
page 3	FLOOD FUND BAZAAR.
page 3	PROMOTION.
page 3	THE VISIT OF THE U.S. FLEET.
page 3	ARRANGEMENTS AT AMOY.
page 3	THE CANTON-HANKOW RAILWAY.
page 3	CORRESPONDENCR.
page 3	THE OPIUM CONTROVERSY.
page 3	MR. J.O.P. BLAND AND MR. THEODORE TAYLOR.
page 3	JAPAN AND CHINA.
page 3	A READJUSTMENT OF POLICY.
page 3	CHARBONNAGES.
page 3	ANNUAL REPORT.
page 5	FIRE ON THE "TAKSANG".
page 5	Fire broke out in the engine room store room of the Indo-China S.N. Co.'s steamer Taktang at 5:30 p.m. on Saturday last.  It appears that as the steamer was due to leave here that night a Chinese fireman went below to light the fires and entered the storeroom.
page 5	SAD ACCIDENT TO AN ENGINE DRIVER IN COLOMAO.
page 6	H.E. TANG SHAO YI'S MISSION.
page 6	LOCAL AND GENERAL.
page 6	Typhoon Aftermath.
page 6	VISIT TO THE DOCKS.
page 6	A SCENE OF UNWONTED ACTIVITY.
page 6	THE PATROL VESSELS.
page 6	FLOATING TARGETS.
page 6	BANGKOK LIGHTER.
page 6	S.S. "SOCRSOGON."
page 6	PORTUGUESE CRUISER.
page 6	CRIPPLED INDO-CHINA BOATS.
page 6	THE S.S "SAN CHEUNG."
page 6	THE S.S "CHARLES HARDDUIN."
page 6	H. M.S. "WHITING."
page 6	S.S. "TELEMACHUS."
page 6	THE SAW-MILLS.
page 6	THE S.S. "LUNCCHOW."
page 6	EMICRANT STEAMER "SRANLEY."
page 6	NJO.I DOCK EXTENSION.
page 6	THE S.S. "POCAHONTAS."
page 6	HongKong Typhoons.
page 6	TWO SIGNALLED-NONE ARRIVED.
page 6	ANXIETY AMONGST THE CHINESE.
page 6	TYPHOON-BOUND EXCURSIONISTS.
page 6	OBSERVATORY REPORT.
page 6	FORFCAST.
page 6	"HONGKONG TELEGRAPH" SERVICE.
page 6	THE OPIUM REVENUE.
page 6	HOW IT IS TO BE MADE UP.
page 6	FORGERS AT SINGAPORE.
page 6	MOTES OF THE NATIONAL BANK OF CHINA.
page 6	SOUTHERN NAVAL BASE.
page 6	NAM-TAI ISLAND SELECTED.
page 6	CHINA'S SORROWS.
page 6	FLOOD IN FUKIEN.
page 6	MINING CONCESSION.
page 6	TEMPTING JAPNAESE OFFER.
page 6	THE ANGLO-JAPANESE ALLIANCE.
page 6	A POACHING AFFRAY.
page 6	JAPANESE SENTENCED TO DEATH.
