page 5	THE CIGAR TRADE.
page 5	CHINESE LABOUR.
page 5	PROSPECT OF SHIPPING 8,000 COOLIES PER MONTH.
page 5	SWATOW CHOWCHOWFU RAILWAY.
page 5	BALTIC FLEET.
page 5	SINKS  NORTH SEA TRAWLER.
page 5	TWO KILLED: MANY INJURED.
page 5	ADMIRALTY TAKE ACTION.
page 5	COALING IN THE CHANNEL.
page 5	THE WAR.
page 5	RUSSIAN CASUALTIES.
page 6	British Army Reform.
page 6	The Thibet Expedition.
page 6	The Russian Baltic Fleet.
page 6	Russian Losses at the Shaho.
page 6	Crisis in Panama.
page 6	S.S. "TELEMACHUS."
page 6	AND HER TOW.
page 6	THE WAR.
page 6	LOOTING AT LIAOYANG.
page 6	MINISTERING CHILDREN'S LEAGUE.
page 6	THE SERVIAN CORONATION.
page 6	MACAO NOTES.
page 6	FRENCH ADMIRAL'S VISIT.
page 6	ZONE TIME.
page 6	THE PIRATE CHIEF.
page 6	SONDAY IN SAIGON.
