page 1	A DASTARDLY CRIME.
page 1	TARTAR GENERAL FU CHI ASSASSINATED.
page 1	SENSATIONAL ENDING TO CANTON AVIATION MEETING.
page 1	PANIC STRICKEN SOLDIERS.
page 1	THE FUNERAL.
page 1	Native Opinion.
page 2	USE OF TORTURES.
page 2	HONGKONG'S DEFENCES.
page 2	ARE THEY SAFE?
page 2	ALLEGED KIDNAPPING.
page 2	JAPAN'S TRADE.
page 2	THE USES OF ADVERSITY.
page 2	A DASARDLY CRIME.
page 2	FREE TRADE.
page 2	THE JAPANESE IN TREATY PORTS.
page 2	CHINESE CONSCRIPTION.
page 2	SIDELIGHTS.
page 2	OPIUM SMUGGLING.
page 3	THE MOTE AND THE BEAM.
page 3	THREE MILLION DOLLAR RAID.
page 3	VILLAGE RANSACKED AFTER BEING WAFRNED.
page 3	A BUSY NIGHT FOR THE FIRE BRIGADE.
page 3	S.S. TELEMACHUS ABLAZE.
page 3	HARBOUR FIRE.
page 3	WING LOK ST. FIRE.
page 3	TO CELEBRATE THE CORONATION.
page 3	IN HONGKONG.
page 3	PLAGUE IN CANTON.
page 3	SANITARY BOARD.
page 3	PROPOSED CHANGE OF NAME REJECTED.
page 3	COMPLAINT RE CONSERVANCY CONTRACTOR.
page 3	WATER CLOSET EQUESTION.
page 3	STREET DUMPING OF RUBBISH.
page 3	RAT RETURN.
page 3	SUBMARINES FOR HONGKONG.
page 3	EXCITING INCIDENT IN THE RED SEA.
page 3	OFFICER OVERBOARD.
page 3	A CHINESE LICENSE.
page 3	INTERPORT CRICKET.
page 3	H.E. SIR HENRY MAY IN FIJI.
page 3	FINDS CONDITIONS ENJOYABLE.
page 3	MERCANTILE BANK OF INDIA.
page 4	NEWS FROM THE NORTH.
page 4	THE MANCHU DYUNASTY.
page 4	K.C.C. DINNER.
page 4	THE BIG BANK FAILURE.
page 4	DETAILS OF LATEST SHANGHAI SMASH.
page 4	THE PLAGUE.
page 4	H.S.H. PRINCE LEOPOLD OF BATTENBERG.
page 4	CHINESE EAND JAPANESE MPETITION.
page 5	U.S. SQUADRON COMING.
page 5	BILLIARD CHAMPIONSHIP.
page 5	PITT V GEARY.
page 5	YACHTING.
page 5	CORINTHIANS CLOSING ORUISE.
page 5	POOR SAILING ON SUNDAY.
page 5	SMOKING CONCERT.
page 6	OPIUM SMUGGLING.
page 6	MANY TINS ON CHIYO MARU.
page 6	AND SUCH IS CHINA!
page 6	THE RECENT AVIATION MEETING IN CANTON.
page 6	RUN ON SWATOW AND CANTON BANKS.
page 6	SUCCESSFULLY STAVED OFF.
page 6	CHW DOGE GIVEN TO RESCUER.
page 6	A GRATEFUL HONGKONG BOATWOMAN.
page 6	TRADE IN THE EAST.
page 6	NEWS ROM THE NORTH .
page 6	POLITICS IN RUSSIA.
page 6	CHINA AND THE TELEGRAPHS.
page 7	MR. POTTER'SADRESS.
page 7	HONGKONG UNIVERSITY.
page 7	THE PARTITIN OF CHINA.
page 7	HIGH OFFICIALS ACCUSED OF REACHERY.
page 7	TOYO KISEN KAISHA.
page 7	DIVIDEND IN SIGHT NEXT TERM.
