page 1	EXETER ELECTION.
page 1	LIBERAL UNSEATED.
page 1	BRITISH LOAN.
page 1	FOR RAILWAY BUILDING.
page 1	THE TRIPLE ALLIANCE.
page 1	IN THE FAR EAST.
page 1	CHINA'S FINANCIAL ADVISERS.
page 1	THE ASSASSINATION.
page 1	ANARCHISTS TO BE HUNTED.
page 1	Aqlarm Spreads.
page 1	THE CANTON ATROCITY.
page 1	TRIAL BEGINS TO-DAY.
page 1	PEKING ALARMED.
page 1	OVER NATIONAL MOVEMENT.
page 1	THE CORONATION.
page 1	COLONIAL REPRESENTATIVES.
page 1	RUSSIAN ROOPS IN MONSGOLIA.
page 1	View of the "Times."
page 1	OUTBREAK OF PLAGUE IN JAVA.
page 1	MANY DLATHS.
page 1	PADRTITION OF CHINA.
page 1	BOARD IMPEACHED.
page 1	A BUSY NIGHT FOR THE FIRE BRIGADE.
page 1	S.S. TELEMACHUS ABLAZE.
page 1	HARBORU FIRE.
page 1	WING LOK ST. FIRE.
page 2	PACIFIC LINERS.
page 2	PREPARING FOR A BOOM.
page 2	TOYO KISEN KAISHA.
page 2	PACIFIC MAIL COMPANY.
page 2	CANADIAN PACIFIC PLANS.
page 2	GREAT PREPARATIONS.
page 3	GERMAN COMPANIES IN THE FAR EAST.
page 3	"A SAD PICTURE".
page 3	"PRACTICALLY POWERLESS."
page 3	PLAGUE IN CANTON.
page 3	OUR CONTEMPORARIES.
page 3	WHAT THEY THINK.
page 3	BATHING ACCOMMODATION.
page 3	SEDITIOUS LITERATURE.
page 3	TONS AND OUNS.
page 3	A FAIR EXCHANGE.
page 3	WAMPOLE'S PREPARATION.
page 4	THE MOTE AND THE BEAM.
page 4	SUBMARINES FOR HONGKONG.
page 4	EXCITING INCIDENT IN THE RED SEA.
page 4	OFFICER OVERBOARD.
page 5	The Judgment.
page 5	A CHINESE LICENSE.
page 5	FINANCIAL NEWS.
page 5	SINGAPORE SHARE MARKET.
page 5	THE GODDESS OF HEAVEN.
page 5	MERCANTILE BANK OF INDIA.
page 5	TO CELEBRATE THE CORONATION.
page 5	IN HONGKONG.
page 5	FOREIGN OFFICERS ON BRITISH WARSHIPS.
page 5	Hades.
page 6	JAPAN AND THE BRITISH EMPIRE.
page 6	HONGKONG DEFENCES.
page 6	ARE THEY SAFE?
page 6	ALLEGED KIDNAPPING.
page 7	SPECULATION AND BANKING.
page 7	EMPIRE DEFENCE.
page 7	AUSTRALIA AND JAPAN.
