page 1	REUTER'S TELEGRAMS.
page 1	RAIL WAY SITUATION GRAVE AS EVER.
page 1	STIL WAY SITUATION GRAVE AS EVER.
page 1	STRIKERS SHOW NO SIGNS OF WAVERING.
page 1	MR. LLOYD GEORGE MEETS RAILWAYMEN'S EXECUTIVE.
page 1	SITUATION AS GRAVE AS EVER.
page 1	PREMIER MEETS TRADE UNIONISTS.
page 1	BETTER RAILWAY SERVICES.
page 1	MOMENTOUS MEETING.
page 1	REUTER'S TELEGRAMS.
page 1	CABLE CONGESTION.
page 1	THE PUBLIC APPEALED TO.
page 1	JAPANESE STEAMER'S PLIGHT.
page 1	THE BALTIC PROBLEM.
page 1	FRENCH APPEAL DECISION.
page 1	GUARANTEED MINIMUM WAGE.
page 1	TRADE UNIONISTS TO STOP AT NOTHING.
page 1	MORE SABOTAGE.
page 1	PREMIER TO MEET TRANSPORT WORKERS.
page 1	BRIDGING THE TROUBLE.
page 1	THE CONFERENCE DECISION.BRIDGING THE TROUBLE.
page 1	THE CONFERENCE DECISION.
page 1	RAILWAYMEN'S EXECUTIVE CONFERS WITH PREMIEB.
page 1	REUTER'S TELEGRAMS.
page 1	THE RISE IN SILVER.
page 1	CAUSED BY CHINESE BUYING.
page 1	STRENGTH OF THE GERMAN ARMY.
page 1	STEEDILY DECLINING.
page 1	OBITUARY.
page 1	SPECIAL TELEGRAMS.
page 1	SINGAPORE SALVAGE CASE.
page 1	JUDGMENT FOR THE N.Y.K.
page 1	SHIP'S FIRE AT SHAGHAI.
page 1	FIRE BEIGADE MEN OVERCOME.
page 1	TANG SHAO-YI RESIGNS.
page 1	THE SLANDER ACTION.
page 1	JUDGMENT FOR PLAINTIFF.
page 1	"HERO" FROM ORKNEY.
page 1	DON'T FORGET.
page 2	HENRY FORD'S LIBEL CASE.
page 2	SIX CENTS DAMAGES!
page 2	HIGH SEAS DRAMA.
page 2	DRUNKEN CREW MUTINIES.
page 2	STOP PROCESSING.
page 2	WORK TO BE DONE.
page 2	BIBLE IN 516 TONGUES.
page 3	COALITION LEGISLATION.
page 3	RECORD OUTPUT OF PARLIAMENT.
page 3	CHEEFOO BREAKWATER.
page 3	HOW TO PREVENT BIGAMY.
page 3	POWER TO REMARRY AFTER SEPARATION.HOW TO PREVENT BIGAMY.
page 3	POWER TO REMARRY AFTER SEPARATION.
page 3	365 TONS OF GOLD.
page 4	THE NEED FOR VIGILANCE.
page 4	HONGKONG DEFENCE CORPS.
page 4	ROBBIE'S LETTER.
page 4	TO THE NEW GOVERNOR.
page 5	SUBVERSIONS END.
page 5	THE SOONER THE BETTER.
page 5	COMPANY REPLORT.
page 5	INDO-CHINA S. N. CO,. LTD.
page 5	THEIS 14 MONTHS BABY.
page 5	HOUSE FLIES.
page 5	ARE THEY HEAT VICTIMS?
page 7	NIPPON YUEN KAISHA.
page 7	NOTICE TO CONSIGNEES.
page 7	From EUROPE AND STRAITS.
page 7	PACIFIC MAIL S.S. CO. LTD.
page 7	NOTICE TO CONSIGNEES.
page 7	S.S. "ARCHER"
page 7	From SAN FRANCISCO & MANILA.
page 7	MOVEMENTS OF STEAMERS.
page 9	EXCESS PASSENGERS.
page 9	MASTER OF TELEMACHUS HEAVILYFINED.
page 9	NATURAL GREEN.
page 9	PROPER HOUSE DECORATION.
page 9	V.R.C. SPORTS.
page 9	THE FIRST DAY'S EVENTS.
page 9	THE GYMKHANA.
page 9	ENTRIES FOR NEXT MEETING.
page 9	GARRISON TENNIS.
page 9	LEAGUE WON BY R.E.s.
page 10	AUTOMATIC TELEPHONES.
page 10	ADOPTION AT STOCKPORT.
page 10	PRICES AND PROFITS.
page 10	LIMITS OF STATE CONTROL.
page 10	SINGAPORE C. OF C. 
page 10	SOME INTERESTING QUESTIONS.SINGAPORE C. OF C. 
page 10	SOME INTERESTING QUESTIONS.
page 10	U.S. NAVY.
page 10	LOW PAY CAUSES RESIGNATIONS.
