page 4	BRITAIN'S CONSULAR SYSTEM.
page 4	HONGKONG FIRE INSURANCE COMPANY, LIMITED.
page 4	ANNUAL MEETING.
page 4	CORRESPONDENCE.
page 4	THE PARSEES IN TEHERAN.
page 4	CHINA FIRE INSURANCE COMPANY LD.
page 4	ANNUAL MEETING.
page 4	MUCH ADJOURNED CLAIM.
page 4	JUDGMENT BY CONSENT.
page 4	CLAIM FOR MONEY LENT.
page 4	TO A PAKHOI MERCHANT.
page 4	THE "TELEMACHUS" CASE.
page 4	THE JAPAN SUGER TAX BILL.
page 4	INTERESTING DEBATE.
page 5	TELEGRAMS.
page 5	The British Navy.
page 5	Russia.
page 5	The United States.
page 5	The Opium Question.
page 5	The Japanese Conversion Loan.
page 5	FOREIGN COMPANIES AND JAPANESE LAW.
page 5	SEATTLE-ORIENTAL SHIPPING.
page 5	PROBABLE WITHDRAWAL OF LINES.
page 5	CANTON DAY BY DAY.
page 5	TOKIO EXHIBITION.
page 5	APPOINTMENTS.
page 5	CANTON MINT.
page 5	NAVAL C MMANDER-IN CHIEF.
page 5	THE PRISONS.
page 5	RIVER VATALITY.
page 5	MIXED COURT APPAIR.
page 5	DRITISH INDEMNITY GLAIM.
page 5	DOCK STRIKE AT NAGASAKL.
page 5	ACITATION CONTINUED.
page 7	LIONS ESCAPE FROM A CIRCUS.
page 7	A PANIC-STRICKEN CROWD.
