page 4	THE GOLD STANDARD IN SINGAPORE.
page 4	THROUGH THE TELEPHONE.
page 4	THE RAIN STORM.
page 4	MORE DAMAGE REPORTED IN THE CITY AND ACROSS THE WATER.
page 4	THE NEXT GYMKHANA.
page 4	SPECIAL RACE FOR WALERS.
page 4	CENTENARIANS IN JAPAN.
page 4	COAL CONSUMPTION IN FORMOSA.
page 4	THE JAPANESE BOYCOTT.
page 4	DIVERSION OF FREIGHT FORM THE JAPANESE VESSELS TO AMERICAN STEAMSHIP.
page 4	SERIOUS CHARGE NOT PROVEN.
page 4	ABLEGED HMBEZZLER DISCHARGED.
page 4	FIRE IN KOBE.
page 4	EYE-HOSPITAL DESTROYED.
page 5	Gambling in the Malay States.
page 5	King and Knisar.
page 5	The U.S. Navy.
page 5	The Balkans.
page 5	S.S. "TELEMACHUS" ASHORE.
page 5	SHIP TOUCHES UNCHARTED SANDBANK.
page 5	FOREIGN SLAVES.
page 5	THE "LINTAN" SENMTION.
page 5	INDIAN WATCHMAN ARRAICNED FOR ATTSMPTED MURDIL.
page 5	THE JAPAN SUGAR REPINING CUMPANY.
page 5	FOREIGH ENGINEER ENGAGED.
page 5	AMRINE COURT.
page 5	UNLAWFUL MOORING.
page 5	OHSTRUCTING THE FAIRWAY.
page 5	WELL-KNOWN ENGINER DEAD.
page 5	SUDDIN COLLAPSE IN SHANGHAI.
page 5	SUICIDE OF CAPTAIN MURRAY.
page 5	SAD INCIDENT IN KOUE.
page 5	THE CHINESE INDEMNITY.
page 5	KR. KOCK IN JAPAN.
