page 1	THE RAILWAY STRIKE.
page 1	NO SIGN OF IT BREAKING.
page 1	ROAD TRANSPORT GOOD.
page 1	DRASTIC PUNISHMENT FOR STRIKE PROFITEERS.
page 1	DANGER OF SYMPATHETIC GENERAL STRIKE NOT OVER YET.
page 1	A "CHALLENGE TO TRADE UNIONISM."
page 1	A STUPID MESSAGE.
page 1	PREMIER'S BELATED GUARANTEE.
page 1	A CRYPTIC ORACLE.
page 1	LATE NEWS OF A CONFERENCE.
page 1	IMPORTANT CONFERENCE OPENS.
page 1	OPTIMISTIC REPORTS.
page 1	TALKING THINGS OVER.
page 1	BRITISH AEROPLANE ACCIDENT.
page 1	GOVERNMENT OF INDIA BILL.
page 1	THE SILVER MARKET.
page 1	CIVIC SERVICE EXAMINATONS.
page 1	FAR EASTERN CABLE NEWS.
page 1	MILITARY SINO JAPANESE AGREEMENT.
page 1	THE GERMAN TREATY.
page 1	INDO-CHINA STEAM NAVIGATION CO, LTD.
page 1	SUPER-TAXATION.
page 4	SHANTUNG.
page 4	CONSTITUTIONAL REFORM.
page 4	N.Y.K.S. SALVAGE CLAIM SUCCESSFUL.
page 4	THE HOUSING PROBLEM.
page 4	WHAT WILL HAPPEN.
page 4	MILITARY GIVE CIVILIANS NOTICE.
page 4	CHIC PARISIEN.
page 4	NO NEED FOR DISCLAIMER.
page 4	CONSTANT READER.
page 4	DEFENCE CORPS RIGHT TO THE WAR MEDAL.
page 4	A CHIVELROUS HOSBAND.
page 4	HONGKONG GYMKHANA CLUB.
page 4	ENTRIES FOR THE MEETING.
page 4	RUN DOWN AT SEA.
page 4	SMART RESCUE.
page 4	THEFT OF STEEL PLATES.
page 5	SUMMARY COURT.
page 5	MR. SOUSA AWARDED $50.
page 5	BIG SHIPPING COMBINE.
page 5	NO SUMMER TIME IN U.S.A.
page 5	MARINE COURT.
page 5	CHARGE AGAINST MASTER OF " TELEMACHUS."
page 5	THE RAILWAY STRIKE.
page 5	A SIGNIFICANT MEETING.
page 5	LAWLESS ACTS.
page 5	WORK FIRST BARGAIN AFTER.
page 5	THE USUAL ANSWER: SEASE STRIKENG AND WELL DISCUSS.
page 5	CARLE DELAYS.
page 5	EXLANATIONB BY CABLE CO.
page 5	GERMANY THE SILENT.
page 5	A BALTIC COMBINATION.
page 5	STEAMER ASHORE.
page 5	AS GOOD AS LOST.
page 5	SILVER AND GOLD.
page 5	WHY QUIEN WAS REPRIEVED.
page 5	A SERIOUS CASE.
page 5	A TRUSTEE CHARGED.
page 5	THE MEANEST TRICK.
page 9	DECOYED AND ROBBED OF OVER 3,000POUNDS.
page 9	EXTRAORDINARY STORY OF LAMBETH OUTRAGE.
