page 1	SALISBURY WORRIED.
page 1	WHO ARE "WE".
page 1	AUSTRALIAN CRICEET MISEAP.
page 1	FAST BALL HITS PLAYER UNDER HEART.
page 1	VISITORS SCORD EASILY AGAINST ESSRT.
page 1	SETILING WITH RAILWAYS.
page 1	PRINCE OF WALES.
page 1	BUSY ON CHALK CLIFFS.
page 1	ZIOMIST MOVEMENT.
page 1	JEWISH IMMIGRANTS TO PALESTINE.
page 1	NEWS FROM U.S..
page 1	SOUTHERN STATES DENY FAMINE.
page 1	CAUGHT IN TYPHOON.
page 1	FIVE PASENGERS MISSING.
page 1	"TELEMACHES" KNOCKED ADOUT.
page 2	A "NEW" DISCOVERY.
page 2	LOVES OF OLD.
page 2	PASSION ON PERIAN POTTERY.
page 2	20,000POUND NECKLACE.
page 2	LARGEST PEARL SAID TO BE JAPANESE.
page 2	PRINCESS AND HER SON.
page 2	TROUBLE IN HOHENZOLLERN FAMILY.
page 4	OF EMOCDRACY.
page 4	LOAL AND GENERAL.
page 4	SPECIAL CABLE.
page 4	SHAANGHAI LEGAL SCANDAL.
page 4	ANOTHER LIBEL.
page 4	CHINESE SLAVERY.
page 4	FOOLING THE ADVERTISER.
page 4	ANONYMOUS HUMORISTS.
page 4	OBITUARY.
page 4	MRS. WM. NICHOLLS.
page 4	SILVER WEDDING.
page 4	BANQUE INDUSTRIELLE.
page 4	"COMPROMISE STTTLEMENT."
page 4	THE PROOEDURE EXPLAINED.
page 4	POSITION IN CINGAPORE.
page 4	APPLICATION THAT MIGHT HAVE GOOD RESULTS.
page 4	COOLIE KILLED.
page 4	MANSLAUGHTER CHARGE.
page 4	LADY MOTORISH ACQUITTED.
page 4	EINEMA NOTES.
page 4	WORLD WHEATRE.
page 5	MOTOR BOAT SALE.
page 5	AUCTIONEER SUED.
page 5	LEGAL ARGUMENT.
page 5	PERU'S CENTERARY.
page 5	LOCAL CELEBRATION.
page 8	GOLD DISPUTE CASE.
page 8	FURTHER ADUOURNMENT.
page 8	CHINA COAST.
page 8	SHIPPING PERSONALS.
page 8	LATEST CHANGES.
page 8	KONGMOON TRADE.
page 8	LAST YEAR'S RETURNS.
page 8	PIRATES AND BRIGANDS.
page 8	EARLIER TELEGRAMS.
page 8	EMPIRE COEFERENCE.
page 10	SUPREME COUECL DISRUPTION.
page 10	FRENCH AND SILESIA.
page 10	MEXICAN OIL.
page 10	CHAMBER REFUSES PRESIDENTIAL REQUEST.
page 10	OBITUARY.
page 10	A JUDGE IN MALAYA.
page 10	TWO AMERICAN AIRMEN KILLED.
page 10	CRASHED AND BURNED.
page 10	PACIFIC PROBLEMS.
page 10	JAPAN ACCEPTS CONDITIONALLY.
page 10	SIEEPING SICKNESS IN KENTUCKT.
page 10	A MEDICAL RECORD.
page 10	U.S.A. & RUSSIA.
page 10	A DEMAND.
page 10	BURMAH RICE.
page 10	LIMITED EXORTS NOW ALLOWED.
page 10	SHORT CUTS TO WEALTH.
page 10	A FOOLISH FOKT.
page 10	"PLANTING THE WILVER TREE."
page 10	TYPHOON WARNING.
