page 4	THE FLOODS.
page 4	THE UNREST IN INDO-CHINA.
page 4	A NEW MAN.
page 4	HE HAD NO TIME.
page 4	ROBBERS EVERYWHERE.
page 4	JAPANESE CABINET RESIGNS.
page 4	THE "GENRO" HOSTILE.
page 4	A MARINE ACCIDENT.
page 4	THE TELEMACHUS ASHORE.
page 4	EXPLOSION.
page 4	THE GRAND LAMA.
page 4	TIBET AND ITS GOVERNMENT.
page 4	TIBET.
page 5	ZEPPELIN AIRSHIP.
page 5	A SUCCESSFUL FLIGHT.
page 5	Kaiser's Enthusiastic Congratulations.
page 5	PERSIA.
page 5	BRITISH NAVAL MANCEUVRES.
page 5	CANADA AND THE OPIUM TRADE.
page 5	THE GROWTH OF THE POPPY.
page 5	To Be Curtailed.
page 5	THE TONKIN TRAGEDY.
page 5	THE VISIT OF THE AMERICAN FLELT.
page 5	SAVAL NEWS.
page 5	BRITISH CONSULAR CHANGES.
page 5	SCHOLASTIC NEWS.
page 5	CANADIAN POLITICS.
page 5	An Amazing Position.
page 5	CHANCE FOR PRISONERS.
page 5	New Start in Life Open.
page 5	NEW MONSTER BATTLESHIP.
page 5	REPENTANT TERRORIST.
page 5	Suicide At Reval.
