page 1	GERMANY ACCEPTS PARIS PLAN AS ARMS CONFERENCE BASIS.
page 1	NATIONS CLEAR WAY TO DISARMAMENT.
page 1	FRENCH IDEA OFFERS FULL SECURITY.
page 1	HOPES FOR AGREEMENT.
page 1	FEARFUL LOSS IN COLLISION NEAR MOSCOW.
page 1	90 Killed And 300 Believed Hurt.
page 1	OFFICALS ON TRIAL.
page 1	Confirmation Given.
page 1	ROME'S BROKEN LEGIONS MARCH TO NEW GLORY.
page 1	In Duce Reviews Fascist Army.
page 1	ANNIVERSARY MARKED.
page 1	OCTOBER SNOW STARTLES NORTHAMPTONSHIRE.
page 1	Earliest Fall In Living Memory Of Country.
page 1	KWANGTUNG TO ENFORCE BAN ON GAMBLING.
page 1	HURTS "PUBLIC MORALS".
page 1	KREUGER'S AUDITORS CONVICTED.
page 1	Short Story Series.
page 1	To Be Published In The "China Mail".
page 1	"TELEMACHUS, FRIEND" BY O. HENRY.
page 1	CANTON EXPORTS OF RAW SILK.
page 1	European Firms Sent 13,785 Bales Away.
page 1	CUBA CURTAILS HER SUGAR OUTPUT.
page 1	Limits Production to Mere 20,000 Tons.
page 1	BRADMAN TWICE OUT CHEAPLY.
page 1	Verity Forces "Aussie" To Follow On.
page 1	YORKSHIREMAN'S 7 FOR 37.
page 1	PLANES TO ASSIST 19TH ROUTE ARMY.
page 1	Pursuing Enemy In Fukien Forests.
page 1	Manchuria's Neutralization Is Topic of Diplomats' Talks.
page 1	Speedy Acceptance.
page 1	No Further Response.
page 1	JAPANESE REDS SENT TO PRISON.
page 1	182 Communists Given Stiff Sentences.
page 1	FOREIGN SHIPS GUARD CHEFOO DURING BATTLE.
page 6	LORD BEAVERBROOKS' CURE.
page 6	Imperial Customs Union Urged.
page 6	Premier A Ploughman Guiding Team.
page 6	CHEAP MONEY NEEDED.
page 6	Our Ideal.
page 6	Cheap Money.
page 6	How It Works.
page 7	LEAGUE FACING ACUTE CRISIS.
page 7	Break-Up Danger At Geneva.
page 7	Japan's Attitude A Real Threat.
page 7	ITALY IS IMPATIENT.
page 22	OBERAMMERGAU ATTRACTS EYES OF CAPITALIST.
page 22	Famous Little Village May Be Exploited.
page 22	PASSION PLAY'S HOME.
