page 2	CONDITIONS IN INDIA.
page 2	A RECORD OF PROGRESS.
page 2	BRAHMINS' SOCIAL ATTITUDE.
page 2	TO SEARCH FOR TSAR'S DAUGHTER.
page 2	DANISH CONSUL-GENERAL'S MISSION.
page 2	MYSTERIOUS DISAPPEARANCE OF $100,000.
page 2	CHINESE FOKI'S RUSE TO HIDE HIS MISFORTUNE.
page 2	WHAT IS THE ALLIES' POLICY?
page 2	SEVERE INDICTMENT BY RUSSIAN BOURGEOISIE.
page 2	IRREGULARITIES IN THE SALT BUREAU.
page 2	LAM PO-YIK GOING TO FUKIEN.
page 2	THE BOYCOTT.
page 2	RECLAMATION AT MACAO.
page 2	TONG SHUI YI'S RESIGNATION.
page 2	THEFT OF STEEL PLATES.
page 2	KOWLOON-CANTON RAILWAY VICTIMIZED.
page 2	A WATCHFUL EYE AND A PECCANT BOY.
page 2	PATRONAL FESTIVAL AT THE ROSARY CHURCH, KOWLOON.
page 2	A HUMAN SPOOK.
page 3	HONGKONG SLANDER ACTION.
page 3	ECHO OF THE PEACE CELEBRATIONS.
page 3	MRS SOUSA AWARDED $50.
page 3	"TELEMACHUS" CARRIES EXCESS PASSENGERS.
page 3	"PROFITEERING OR GROSS NEGLIGENCE."
page 3	MOUNTAIN OUT OF A MOLE HILL.
page 3	VILLAGE ELDER REPORTS PIRACY AND MURDER.
page 3	POLICE DISCOVER A FISHERMEN'S BRAWL.
page 5	IS THE END OF THE STRIKE IN SIGHT:
page 5	SITUATION STILL GAVE:
page 5	PREMIER WILL NOT NEGOTIATE UNTIL WORK IS RESUMED:
page 5	TRANSPORT WORKERS MAY BRING PRESSURE TO BEAR ON STRIKERS.
page 5	PROGRESS OF GENERAL DENIKIN AND ADMIRAL KOLTCHAK.
page 5	LABOUR CRISIS AT HOME.
page 5	THE END IN SIGHT?
page 5	DOOR STILL OPEN FOR DIS CUSSION.
page 5	NEGOTIATIONS REACH A DEAD LOCK.
page 5	NOT STRIKING FOR STRIKE'S SAKE.
page 5	ANOTHER MEETING WITH THE PREMIER.
page 5	SOME PROGRESS IN THE NEGOTIATIONS.
page 5	MR. THOMAS AT THE CONFERENCE.
page 5	NO DECISION BY THE TRANSPORT WORKERS.
page 5	GENERAL OUTLOOK CRITICAL.
page 5	MORE MEN RETURN TO WORK.
page 5	THE FOOD DISTRIBUTION ORGANISATION.
page 5	STRIKE CONDITIONS IN SCOTLAND.
page 5	A MOMENTOUS MEETING.
page 5	THE PRINCIPLES OF TRADE UNIONISM.
page 5	A DEPUTATION TO THE PREMIER.
page 5	THE TRANSPORT CONFERENCE DECISION.
page 5	PREMIER MEETS TRADE UNIONISTS.
page 5	GOVERNMENT'S OFFER TO THE RAILWAYMEN.
page 5	RAILWAY SERVICES CONTINUE TO IMPROVE.
page 5	STRIKE SITUATION STILL GRAVE.
page 5	THE WAR ON BOLSHEVISM.
page 5	PROGRESS OF DENIKIN AND KOLTCHAK.
page 5	TERRIBLE RAINSTORMS IN SPAIN.
page 5	A DISASTROUS TOLL OF DAMAGE.
page 5	THE COAL PROBLEM.
page 5	ENGLAND PURCHASES FROM THE U.S.A.
page 5	A FIRE IN LONDON.
page 5	IN THE MINISTRY OF FOOD.
page 5	OLD DISCOVERED IN MIDLOTHIAN.
page 5	DURING BORING OPERATIONS.
page 5	GERMANY.
page 5	DEMOCRATS ENTER THE GOVERNMENT.
page 5	THE ARMY DECREASING IN NUMBERS.
page 5	CONGESTION ON THE CABLES.
page 5	AN APPEAL TO THE PUBLIC.
page 5	A SHIPPING DISASTER.
page 5	JAPANESE STEAMER'S PLIGHT.
page 5	THE BALTIC PROVINCES.
page 5	GERMANY DELAYS TO REPLY TO THE ALLIES.
page 5	A BALTIC ALLIANCE.
page 5	NURSE CAVELL'S BETRAYER.
page 5	DEATH SENTENCE COMMUTED.
page 5	A RUSSO-CHINESE DISPUTE SETTLED.
page 5	PRESIDENT AT THE TEMPLE OF CONFUCIUS.
page 6	WOMEN LIVES 21 YEARS WITHOUT ANY STOMACH.
page 6	"OUR AMAZING PEOPLE."
page 6	SIR. H. WILSON AND BELFAST'S PEACE PARADE.
page 7	NATIONAL SOCIALIST PARTY.
page 7	"DIRECT ACTION" DENOUNCED.
page 7	FAILURE OF "DIRECT ACTION."
page 7	WHAT BOLSHEVISM MEANS.
page 7	EMPIRE WAR DEBTS.
page 7	AUSTRALIAN PLAN FOR JOINT ADMINISTRATION.
